Circuit: * C:\Users\prith\Documents\1A\1 GeorgiaTech\6 S24\ECE4871\HighEfficiencyInverter\HEI_Logic_Stage\DiffAmpSPICE\DiffAmpShifter_Simplified.asc

Direct Newton iteration for .op point succeeded.

Date: Tue Sep  3 20:33:34 2024
Total elapsed time: 0.300 seconds.

tnom = 27
temp = 27
method = modified trap
totiter = 7818
traniter = 7813
tranpoints = 3822
accept = 2703
rejected = 1119
matrix size = 141
fillins = 154
solver = Normal
Avg thread counts: 1.3/1.7/1.7/1.3
Matrix Compiler1: 14.95 KB object code size  14.2/7.9/[7.2]
Matrix Compiler2: 14.30 KB object code size  6.6/7.9/[6.0]

