Circuit: * C:\Users\prith\Documents\1A\1 GeorgiaTech\6 S24\ECE4871\HighEfficiencyInverter\HEI_Logic_Stage\DiffAmpSPICE\DiffAmpShifter_Simplified.asc

WARNING: Less than two connections to node n005.  This node is used by s:u2:et_vzcr.
Direct Newton iteration for .op point succeeded.
Ignoring empty pin current: Ix(set_bw:1)
Ignoring empty pin current: Ix(set_bw:2)
Ignoring empty pin current: Ix(set_bw:3)
Ignoring empty pin current: Ix(buffer:1)
Ignoring empty pin current: Ix(buffer:2)
Ignoring empty pin current: Ix(buffer:3)
Ignoring empty pin current: Ix(buffer:4)
Ignoring empty pin current: Ix(buffer:5)
Ignoring empty pin current: Ix(u2:viout)
Ignoring empty pin current: Ix(set_bw:1)
Ignoring empty pin current: Ix(set_bw:2)
Ignoring empty pin current: Ix(set_bw:3)
Ignoring empty pin current: Ix(buffer:1)
Ignoring empty pin current: Ix(buffer:2)
Ignoring empty pin current: Ix(buffer:3)
Ignoring empty pin current: Ix(buffer:4)
Ignoring empty pin current: Ix(buffer:5)
Ignoring empty pin current: Ix(u2:viout)

Date: Mon Sep  9 16:50:57 2024
Total elapsed time: 0.268 seconds.

tnom = 27
temp = 27
method = modified trap
totiter = 8102
traniter = 8088
tranpoints = 3810
accept = 2726
rejected = 1084
matrix size = 156
fillins = 157
solver = Normal
Avg thread counts: 1.3/1.7/1.7/1.3
Matrix Compiler1:     891 opcodes  2.3/[1.5]/1.8
Matrix Compiler2: 15.32 KB object code size  0.8/1.6/[0.7]

