Circuit: * C:\Users\prith\Documents\1A\1 GeorgiaTech\6 S24\ECE4871\HighEfficiencyInverter\HEI_Logic_Stage\DiffAmpSPICE\DiffAmpShifter_Simplified.asc

WARNING: Less than two connections to node n005.  This node is used by s:u2:et_vzcr.
Direct Newton iteration for .op point succeeded.
Ignoring empty pin current: Ix(set_bw:1)
Ignoring empty pin current: Ix(set_bw:2)
Ignoring empty pin current: Ix(set_bw:3)
Ignoring empty pin current: Ix(buffer:1)
Ignoring empty pin current: Ix(buffer:2)
Ignoring empty pin current: Ix(buffer:3)
Ignoring empty pin current: Ix(buffer:4)
Ignoring empty pin current: Ix(buffer:5)
Ignoring empty pin current: Ix(u2:viout)
Ignoring empty pin current: Ix(set_bw:1)
Ignoring empty pin current: Ix(set_bw:2)
Ignoring empty pin current: Ix(set_bw:3)
Ignoring empty pin current: Ix(buffer:1)
Ignoring empty pin current: Ix(buffer:2)
Ignoring empty pin current: Ix(buffer:3)
Ignoring empty pin current: Ix(buffer:4)
Ignoring empty pin current: Ix(buffer:5)
Ignoring empty pin current: Ix(u2:viout)

Date: Wed Sep 11 14:53:40 2024
Total elapsed time: 0.192 seconds.

tnom = 27
temp = 27
method = modified trap
totiter = 8001
traniter = 7987
tranpoints = 3877
accept = 2693
rejected = 1184
matrix size = 156
fillins = 156
solver = Normal
Avg thread counts: 1.3/1.7/1.7/1.3
Matrix Compiler1: 15.44 KB object code size  2.9/2.1/[1.6]
Matrix Compiler2: 15.31 KB object code size  1.0/2.3/[0.8]

