Circuit: * C:\Users\prith\Documents\1A\1 GeorgiaTech\6 S24\ECE4871\HighEfficiencyInverter\HEI_Logic_Stage\DiffAmpSPICE\DiffAmpShifter_Simplified.asc

WARNING: Less than two connections to node n005.  This node is used by s:u2:et_vzcr.
Direct Newton iteration for .op point succeeded.
Ignoring empty pin current: Ix(set_bw:1)
Ignoring empty pin current: Ix(set_bw:2)
Ignoring empty pin current: Ix(set_bw:3)
Ignoring empty pin current: Ix(buffer:1)
Ignoring empty pin current: Ix(buffer:2)
Ignoring empty pin current: Ix(buffer:3)
Ignoring empty pin current: Ix(buffer:4)
Ignoring empty pin current: Ix(buffer:5)
Ignoring empty pin current: Ix(u2:viout)
Ignoring empty pin current: Ix(set_bw:1)
Ignoring empty pin current: Ix(set_bw:2)
Ignoring empty pin current: Ix(set_bw:3)
Ignoring empty pin current: Ix(buffer:1)
Ignoring empty pin current: Ix(buffer:2)
Ignoring empty pin current: Ix(buffer:3)
Ignoring empty pin current: Ix(buffer:4)
Ignoring empty pin current: Ix(buffer:5)
Ignoring empty pin current: Ix(u2:viout)

Date: Tue Sep 17 22:53:45 2024
Total elapsed time: 0.220 seconds.

tnom = 27
temp = 27
method = modified trap
totiter = 7658
traniter = 7644
tranpoints = 3823
accept = 2723
rejected = 1100
matrix size = 158
fillins = 156
solver = Normal
Avg thread counts: 1.4/1.7/1.7/1.4
Matrix Compiler1: 15.48 KB object code size  3.9/1.9/[1.5]
Matrix Compiler2: off  [1.1]/2.0/2.7

