Circuit: * C:\Users\prith\Documents\1A\1 GeorgiaTech\6 S24\ECE4871\HighEfficiencyInverter\HEI_Logic_Stage\DiffAmpSPICE\DiffAmpShifter_Simplified.asc

Direct Newton iteration for .op point succeeded.

Date: Mon Sep  2 21:03:34 2024
Total elapsed time: 0.199 seconds.

tnom = 27
temp = 27
method = modified trap
totiter = 8165
traniter = 8160
tranpoints = 3882
accept = 2723
rejected = 1159
matrix size = 141
fillins = 154
solver = Normal
Avg thread counts: 1.3/1.7/1.7/1.3
Matrix Compiler1:     857 opcodes  4.1/[2.5]/3.0
Matrix Compiler2: off  [1.1]/3.6/1.5

