Circuit: * C:\Users\prith\Documents\1A\1 GeorgiaTech\6 S24\ECE4871\HighEfficiencyInverter\HEI_Logic_Stage\DiffAmpSPICE\DiffAmpShifter_Simplified.asc

WARNING: Less than two connections to node n005.  This node is used by s:u2:et_vzcr.
Direct Newton iteration for .op point succeeded.
Ignoring empty pin current: Ix(set_bw:1)
Ignoring empty pin current: Ix(set_bw:2)
Ignoring empty pin current: Ix(set_bw:3)
Ignoring empty pin current: Ix(buffer:1)
Ignoring empty pin current: Ix(buffer:2)
Ignoring empty pin current: Ix(buffer:3)
Ignoring empty pin current: Ix(buffer:4)
Ignoring empty pin current: Ix(buffer:5)
Ignoring empty pin current: Ix(u2:viout)
Ignoring empty pin current: Ix(set_bw:1)
Ignoring empty pin current: Ix(set_bw:2)
Ignoring empty pin current: Ix(set_bw:3)
Ignoring empty pin current: Ix(buffer:1)
Ignoring empty pin current: Ix(buffer:2)
Ignoring empty pin current: Ix(buffer:3)
Ignoring empty pin current: Ix(buffer:4)
Ignoring empty pin current: Ix(buffer:5)
Ignoring empty pin current: Ix(u2:viout)

Date: Wed Sep 11 16:06:50 2024
Total elapsed time: 0.350 seconds.

tnom = 27
temp = 27
method = modified trap
totiter = 8752
traniter = 8738
tranpoints = 4211
accept = 2836
rejected = 1375
matrix size = 156
fillins = 156
solver = Normal
Avg thread counts: 1.3/1.6/1.6/1.3
Matrix Compiler1:     886 opcodes  3.4/[1.6]/2.1
Matrix Compiler2: off  [1.2]/2.2/1.8

